 322
CRYST1   17.09488   16.9873   30.0  90.00  90.00  90.00        None   1^M
C  -0.923000  4.509000  -5.575000
C  -1.983000  3.937000  -6.337000
C  -3.070000  3.332000  -5.642000
C  -4.003000  2.476000  -6.281000
C  -4.361000  1.274000  -5.634000
C  -4.520000  0.045000  -6.297000
C  -4.053000  -1.126000  -5.646000
C  -4.098000  -1.158000  -4.232000
C  -3.591000  -2.266000  -3.521000
C  -2.849000  -3.238000  -4.229000
C  -1.946000  -4.052000  -3.500000
C  -1.961000  -4.039000  -2.086000
C  -0.870000  -4.552000  -1.352000
C  0.341000  -4.796000  -2.048000
C  0.361000  -4.813000  -3.463000
C  1.583000  -4.649000  -4.165000
C  1.568000  -4.611000  -5.577000
C  2.635000  -3.997000  -6.293000
C  0.370000  -4.974000  -6.228000
C  -0.836000  -4.656000  -5.583000
C  -0.913000  -4.504000  0.061000
C  1.553000  -4.671000  -1.336000
C  2.684000  -4.192000  -2.029000
C  -2.010000  -4.013000  0.781000
C  -2.915000  -3.253000  0.032000
C  -3.648000  -2.307000  0.752000
C  -4.154000  -1.222000  0.031000
C  -4.425000  -0.064000  0.781000
C  -4.548000  -0.067000  2.199000
C  -4.499000  1.198000  2.860000
C  -3.868000  2.279000  2.181000
C  -3.254000  3.344000  2.894000
C  -4.446000  -1.334000  2.846000
C  -3.758000  -2.373000  2.159000
C  -2.899000  -3.251000  -1.384000
C  -1.974000  -4.198000  -6.263000
C  -0.842000  -4.615000  -4.178000
C  2.700000  -4.179000  -3.443000
C  -4.146000  -1.178000  -1.386000
C  -4.388000  0.026000  -2.092000
C  -3.624000  -2.277000  -2.106000
C  -4.321000  1.239000  -1.362000
C  -3.870000  2.377000  -2.070000
C  -3.097000  3.310000  -1.338000
C  -3.078000  3.257000  0.074000
C  -3.803000  2.291000  0.777000
C  -4.302000  1.196000  0.052000
C  3.674000  -3.429000  -4.141000
C  4.411000  -2.466000  -3.409000
C  4.882000  -1.323000  -4.095000
C  3.683000  -3.376000  -5.555000
C  4.618000  -2.512000  -6.164000
C  4.951000  -1.325000  -5.499000
C  -3.094000  3.370000  -4.230000
C  -3.869000  2.398000  -3.545000
C  -2.177000  4.002000  2.241000
C  -1.060000  4.538000  2.934000
C  0.184000  4.521000  2.247000
C  1.422000  4.521000  2.950000
C  2.535000  3.956000  2.282000
C  3.593000  3.292000  2.962000
C  4.183000  2.204000  2.268000
C  4.132000  2.171000  0.859000
C  4.633000  1.076000  0.144000
C  4.817000  -0.107000  0.876000
C  4.817000  1.145000  2.969000
C  4.888000  -0.103000  2.293000
C  3.431000  3.146000  0.137000
C  2.491000  3.889000  0.865000
C  1.393000  4.365000  0.129000
C  4.837000  -1.362000  2.944000
C  4.242000  -2.451000  2.260000
C  3.644000  -3.546000  2.951000
C  -2.120000  3.954000  0.823000
C  -1.000000  4.400000  0.105000
C  0.192000  4.495000  0.837000
C  4.950000  -0.098000  -3.395000
C  4.714000  1.102000  -4.111000
C  4.207000  2.211000  -3.404000
C  3.487000  3.191000  -4.122000
C  3.462000  3.192000  -5.537000
C  2.553000  3.980000  -3.408000
C  1.454000  4.521000  -4.110000
C  1.486000  4.586000  -5.513000
C  4.905000  -0.103000  -1.983000
C  4.671000  1.088000  -1.270000
C  4.197000  2.205000  -1.990000
C  4.762000  -1.312000  -1.270000
C  4.361000  -2.456000  -1.995000
C  3.615000  -3.425000  -1.296000
C  3.565000  -3.400000  0.117000
C  4.229000  -2.413000  0.851000
C  4.702000  -1.300000  0.144000
C  2.626000  -4.149000  0.835000
C  1.535000  -4.622000  0.083000
C  0.264000  -4.692000  0.799000
C  0.244000  -4.743000  2.211000
C  1.480000  -4.784000  2.908000
C  2.615000  -4.229000  2.252000
C  -1.009000  -4.729000  2.881000
C  -2.096000  -4.120000  2.197000
C  -3.176000  -3.473000  2.857000
C  -0.996000  4.455000  -1.312000
C  0.215000  4.629000  -2.011000
C  -2.122000  4.034000  -2.053000
C  -2.113000  4.054000  -3.473000
C  -0.973000  4.517000  -4.161000
C  0.228000  4.675000  -3.424000
C  1.408000  4.420000  -1.284000
C  2.531000  3.950000  -1.995000
C  3.458000  3.169000  -1.276000
C  4.703000  1.079000  -5.524000
C  4.104000  2.143000  -6.261000
C  5.158000  -0.099000  -6.158000
C  0.291000  4.884000  -6.190000
C  -3.782000  3.644000  4.169000
C  -3.506000  4.886000  4.815000
C  -4.714000  5.578000  5.414000
C  -5.900000  4.884000  5.584000
C  -5.924000  3.433000  5.312000
C  -4.841000  2.822000  4.630000
C  -1.075000  5.126000  4.216000
C  -2.270000  5.601000  4.827000
C  1.442000  5.117000  4.226000
C  0.182000  5.629000  4.665000
C  2.653000  5.581000  4.824000
C  4.153000  3.633000  4.217000
C  3.911000  4.897000  4.827000
C  5.383000  1.462000  4.224000
C  5.238000  2.818000  4.648000
C  6.313000  3.441000  5.312000
C  7.508000  2.710000  5.468000
C  7.508000  1.302000  5.285000
C  6.362000  0.614000  4.812000
C  -4.994000  -1.677000  4.095000
C  -5.978000  -0.834000  4.690000
C  -7.087000  -1.530000  5.227000
C  -7.073000  -2.925000  5.430000
C  -5.906000  -3.635000  5.211000
C  -4.819000  -3.015000  4.549000
C  -3.757000  -3.851000  4.097000
C  -3.533000  -5.136000  4.688000
C  -1.056000  -5.402000  4.120000
C  1.459000  -5.423000  4.164000
C  0.190000  -5.945000  4.559000
C  0.173000  -7.215000  5.153000
C  1.389000  -7.899000  5.333000
C  2.664000  -5.871000  4.777000
C  4.138000  -3.883000  4.233000
C  3.902000  -5.159000  4.824000
C  5.396000  -1.646000  4.211000
C  6.379000  -0.818000  4.826000
C  7.518000  -1.530000  5.295000
C  7.492000  -2.937000  5.508000
C  6.303000  -3.682000  5.366000
C  5.229000  -3.074000  4.679000
C  -5.021000  1.509000  4.131000
C  -5.995000  0.660000  4.716000
C  -7.128000  1.317000  5.266000
C  -7.127000  2.710000  5.473000
C  -2.266000  6.944000  5.291000
C  -3.467000  7.658000  5.509000
C  5.056000  5.536000  5.394000
C  5.037000  6.929000  5.646000
C  6.244000  7.641000  5.877000
C  7.477000  6.945000  5.950000
C  7.482000  5.531000  5.834000
C  6.277000  4.834000  5.554000
C  -7.122000  5.561000  5.857000
C  -7.121000  6.971000  5.940000
C  -8.349000  7.668000  6.017000
C  -4.694000  6.981000  5.623000
C  -5.902000  7.682000  5.831000
C  5.043000  -5.776000  5.415000
C  6.244000  -5.068000  5.604000
C  7.445000  -5.772000  5.871000
C  7.469000  -7.185000  5.983000
C  6.254000  -7.895000  5.903000
C  -8.336000  -3.645000  5.680000
C  -8.332000  -5.025000  5.839000
C  -5.879000  -5.089000  5.459000
C  -7.100000  -5.733000  5.796000
C  -7.115000  -7.147000  5.914000
C  -8.340000  -7.865000  6.021000
C  -5.892000  -7.856000  5.811000
C  -4.673000  -7.170000  5.559000
C  -4.660000  -5.786000  5.285000
C  -2.291000  -5.848000  4.680000
C  5.051000  -7.176000  5.663000
C  -2.787000  -3.224000  -5.644000
C  -3.412000  -2.170000  -6.375000
C  -3.351000  -2.053000  -7.950000
C  -1.830000  3.880000  -7.902000
C  2.656000  4.166000  -6.164000
C  -2.815000  -0.732000  -8.306000
C  -4.719000  -2.163000  -8.469000
C  -2.553000  -3.108000  -8.591000
C  -0.667000  3.031000  -8.204000
C  -1.607000  5.238000  -8.406000
C  -3.034000  3.380000  -8.578000
C  4.112000  2.063000  -7.837000
C  5.505000  2.169000  -8.286000
C  3.362000  3.147000  -8.487000
C  3.581000  0.759000  -8.256000
C  2.503000  -3.866000  -7.856000
C  1.376000  -2.953000  -8.108000
C  2.227000  -5.183000  -8.438000
C  3.730000  -3.378000  -8.498000
C  -4.336000  1.250000  -4.232000
C  -4.382000  0.031000  -3.513000
C  0.172000  6.972000  5.248000
C  1.402000  7.648000  5.372000
C  -1.059000  7.663000  5.347000
C  3.809000  7.613000  5.548000
C  2.609000  6.918000  5.307000
C  3.793000  -7.918000  5.541000
C  2.602000  -7.198000  5.277000
C  -1.053000  -7.885000  5.284000
C  -2.268000  -7.178000  5.184000
C  -3.463000  -7.879000  5.461000
C  -8.310000  -0.825000  5.337000
C  -8.327000  0.586000  5.346000
C  -8.333000  3.419000  5.662000
C  -8.336000  4.829000  5.826000
N  -4.002000  3.023000  -9.067000
N  -1.521000  6.323000  -8.746000
N  6.600000  2.298000  -8.580000
N  2.805000  4.023000  -8.963000
N  0.266000  2.379000  -8.305000
N  -5.799000  -2.293000  -8.816000
N  -1.955000  -3.959000  -9.065000
N  2.096000  -6.240000  -8.848000
N  4.716000  -3.036000  -8.963000
N  0.470000  -2.258000  -8.153000
N  -2.456000  0.338000  -8.477000
N  3.221000  -0.299000  -8.487000
O  1.093000  -1.726000  3.834000
O  0.841000  -1.481000  2.480000
O  -0.925000  0.808000  0.934000
O  0.320000  1.323000  1.310000
O  -1.032000  0.717000  -5.425000
O  0.156000  1.424000  -5.208000
O  0.435000  1.991000  4.688000
O  1.573000  1.266000  4.327000
O  -8.378000  6.161000  -1.559000
O  -8.279000  6.020000  -0.171000
O  5.343000  -7.636000  2.485000
O  4.088000  -7.088000  2.208000
O  -5.629000  -7.320000  2.455000
O  -5.964000  -5.971000  2.308000
O  -7.546000  0.020000  -0.698000
O  8.150000  0.367000  -0.764000
O  -7.924000  -6.383000  -0.738000
O  -7.757000  -7.542000  -1.505000
O  0.347000  -1.568000  -0.667000
O  1.545000  -0.855000  -0.571000
O  0.936000  -7.940000  -1.093000
O  0.473000  7.705000  -0.915000
O  2.984000  7.150000  0.897000
O  3.682000  6.843000  2.067000
O  7.047000  3.452000  -1.671000
O  7.071000  3.273000  -0.287000
O  6.765000  6.129000  2.587000
O  7.096000  4.783000  2.399000
O  4.147000  -6.989000  -0.952000
O  5.285000  -6.311000  -0.500000
O  -1.808000  -0.974000  4.845000
O  -1.661000  -0.042000  3.813000
O  -4.721000  -7.549000  -0.570000
O  -4.517000  -6.172000  -0.417000
O  -4.032000  6.981000  2.310000
O  -3.019000  6.858000  1.359000
O  -7.832000  -1.382000  2.070000
O  7.863000  -1.632000  1.841000
O  -6.602000  -3.629000  0.358000
O  -6.405000  -3.636000  -1.026000
O  -5.123000  -5.527000  -3.407000
O  -4.106000  -6.478000  -3.558000
O  -7.016000  2.993000  -1.873000
O  -6.821000  3.260000  -0.515000
O  -6.468000  4.837000  2.288000
O  -6.975000  6.089000  2.656000
O  7.986000  1.617000  2.112000
O  -7.693000  1.879000  2.085000
O  0.882000  -7.997000  2.069000
O  0.123000  7.785000  2.151000
O  6.821000  -4.912000  2.324000
O  8.192000  -4.733000  2.529000
O  -5.215000  5.684000  -1.989000
O  -5.147000  5.910000  -0.611000
O  4.232000  6.767000  -3.219000
O  3.249000  7.119000  -2.289000
O  7.086000  3.394000  -4.887000
O  6.477000  4.606000  -4.540000
O  -6.486000  3.932000  -4.900000
O  -7.195000  5.008000  -4.356000
O  7.636000  -5.112000  -3.321000
O  6.248000  -5.256000  -3.227000
O  7.673000  -2.674000  -1.284000
O  7.150000  -3.686000  -0.474000
O  8.326000  -8.275000  1.539000
O  8.412000  -7.985000  2.902000
O  -1.799000  -7.428000  0.509000
O  -2.461000  -7.241000  1.726000
O  -2.479000  7.410000  -1.783000
O  -2.802000  7.332000  -3.140000
O  1.394000  8.060000  -4.628000
O  0.119000  7.996000  -4.058000
O  -1.078000  0.718000  -2.236000
O  0.121000  1.419000  -2.077000
O  1.601000  -0.854000  -3.735000
O  0.401000  -1.560000  -3.850000
O  5.483000  5.897000  -0.385000
O  5.875000  7.239000  -0.310000
H  -4.52     0.045     -7.197
H  -4.003    2.476     -7.191
H   0.291    4.884     -7.10
H   2.656    4.166     -7.074
H   5.158   -0.099     -7.068
H   0.37    -4.974     -7.138
H   -1.974  -4.198     -7.173
H    4.618  -2.512     -7.074
